<?xml version="1.0" ?>
<additional xmlns:xsi="http://www.w3.org/2001/XMLSchema-instance" xsi:noNamespaceSchemaLocation="http://sumo.dlr.de/xsd/additional_file.xsd">
  <calibrator id="cal_I2_I3_west" edge="I2_I3" pos="200.0" freq="300">
    <flow begin="0" end="1800" vehsPerHour="550" speed="12.50"/>
    <flow begin="1800" end="4800" vehsPerHour="870" speed="11.00"/>
    <flow begin="4800" end="7200" vehsPerHour="620" speed="12.50"/>
  </calibrator>
  <calibrator id="cal_I5_I6_west" edge="I5_I6" pos="220.0" freq="300">
    <flow begin="0" end="1800" vehsPerHour="580" speed="12.50"/>
    <flow begin="1800" end="4800" vehsPerHour="920" speed="11.00"/>
    <flow begin="4800" end="7200" vehsPerHour="660" speed="12.50"/>
  </calibrator>
</additional>
