<?xml version="1.0" ?>
<additional xmlns:xsi="http://www.w3.org/2001/XMLSchema-instance" xsi:noNamespaceSchemaLocation="http://sumo.dlr.de/xsd/additional_file.xsd">
  <parkingArea id="pa_bessa_delivery_w" lane="I2_I3_2" startPos="60.0" endPos="92.0" roadsideCapacity="4" friendlyPos="true" angle="0"/>
  <parkingArea id="pa_serralves_delivery_w" lane="I3_I4_2" startPos="70.0" endPos="108.0" roadsideCapacity="5" friendlyPos="true" angle="0"/>
  <parkingArea id="pa_marechal_delivery_w" lane="I5_I6_2" startPos="60.0" endPos="92.0" roadsideCapacity="4" friendlyPos="true" angle="0"/>
  <parkingArea id="pa_praca_imperio_taxi_e" lane="I6_I5_2" startPos="80.0" endPos="105.0" roadsideCapacity="3" friendlyPos="true" angle="0"/>
</additional>
