<?xml version="1.0" ?>
<edges>
  <edge id="CITY_EAST_I1" from="CITY_EAST" to="I1" numLanes="2" speed="13.89" priority="4"/>
  <edge id="I1_CITY_EAST" from="I1" to="CITY_EAST" numLanes="2" speed="13.89" priority="4"/>
  <edge id="I1_I2" from="I1" to="I2" numLanes="2" speed="13.89" priority="4"/>
  <edge id="I2_I1" from="I2" to="I1" numLanes="2" speed="13.89" priority="4"/>
  <edge id="I2_I3" from="I2" to="I3" numLanes="2" speed="13.89" priority="4"/>
  <edge id="I3_I2" from="I3" to="I2" numLanes="2" speed="13.89" priority="4"/>
  <edge id="I3_I4" from="I3" to="I4" numLanes="2" speed="13.89" priority="4"/>
  <edge id="I4_I3" from="I4" to="I3" numLanes="2" speed="13.89" priority="4"/>
  <edge id="I4_I5" from="I4" to="I5" numLanes="2" speed="13.89" priority="4"/>
  <edge id="I5_I4" from="I5" to="I4" numLanes="2" speed="13.89" priority="4"/>
  <edge id="I5_I6" from="I5" to="I6" numLanes="2" speed="13.89" priority="4"/>
  <edge id="I6_I5" from="I6" to="I5" numLanes="2" speed="13.89" priority="4"/>
  <edge id="I6_I7" from="I6" to="I7" numLanes="2" speed="13.89" priority="4"/>
  <edge id="I7_I6" from="I7" to="I6" numLanes="2" speed="13.89" priority="4"/>
  <edge id="I7_ATLANTIC_WEST" from="I7" to="ATLANTIC_WEST" numLanes="2" speed="13.89" priority="4"/>
  <edge id="ATLANTIC_WEST_I7" from="ATLANTIC_WEST" to="I7" numLanes="2" speed="13.89" priority="4"/>
  <edge id="N_I1_I1" from="N_I1" to="I1" numLanes="2" speed="8.33" priority="2"/>
  <edge id="I1_N_I1" from="I1" to="N_I1" numLanes="2" speed="8.33" priority="2"/>
  <edge id="S_I1_I1" from="S_I1" to="I1" numLanes="2" speed="8.33" priority="2"/>
  <edge id="I1_S_I1" from="I1" to="S_I1" numLanes="2" speed="8.33" priority="2"/>
  <edge id="N_I2_I2" from="N_I2" to="I2" numLanes="1" speed="8.33" priority="2"/>
  <edge id="I2_N_I2" from="I2" to="N_I2" numLanes="1" speed="8.33" priority="2"/>
  <edge id="S_I2_I2" from="S_I2" to="I2" numLanes="1" speed="8.33" priority="2"/>
  <edge id="I2_S_I2" from="I2" to="S_I2" numLanes="1" speed="8.33" priority="2"/>
  <edge id="N_I3_I3" from="N_I3" to="I3" numLanes="1" speed="8.33" priority="2"/>
  <edge id="I3_N_I3" from="I3" to="N_I3" numLanes="1" speed="8.33" priority="2"/>
  <edge id="S_I3_I3" from="S_I3" to="I3" numLanes="1" speed="8.33" priority="2"/>
  <edge id="I3_S_I3" from="I3" to="S_I3" numLanes="1" speed="8.33" priority="2"/>
  <edge id="N_I4_I4" from="N_I4" to="I4" numLanes="1" speed="8.33" priority="2"/>
  <edge id="I4_N_I4" from="I4" to="N_I4" numLanes="1" speed="8.33" priority="2"/>
  <edge id="S_I4_I4" from="S_I4" to="I4" numLanes="1" speed="8.33" priority="2"/>
  <edge id="I4_S_I4" from="I4" to="S_I4" numLanes="1" speed="8.33" priority="2"/>
  <edge id="N_I5_I5" from="N_I5" to="I5" numLanes="1" speed="8.33" priority="2"/>
  <edge id="I5_N_I5" from="I5" to="N_I5" numLanes="1" speed="8.33" priority="2"/>
  <edge id="S_I5_I5" from="S_I5" to="I5" numLanes="1" speed="8.33" priority="2"/>
  <edge id="I5_S_I5" from="I5" to="S_I5" numLanes="1" speed="8.33" priority="2"/>
  <edge id="N_I6_I6" from="N_I6" to="I6" numLanes="2" speed="8.33" priority="2"/>
  <edge id="I6_N_I6" from="I6" to="N_I6" numLanes="2" speed="8.33" priority="2"/>
  <edge id="S_I6_I6" from="S_I6" to="I6" numLanes="2" speed="8.33" priority="2"/>
  <edge id="I6_S_I6" from="I6" to="S_I6" numLanes="2" speed="8.33" priority="2"/>
  <edge id="N_I7_I7" from="N_I7" to="I7" numLanes="1" speed="8.33" priority="2"/>
  <edge id="I7_N_I7" from="I7" to="N_I7" numLanes="1" speed="8.33" priority="2"/>
  <edge id="S_I7_I7" from="S_I7" to="I7" numLanes="1" speed="8.33" priority="2"/>
  <edge id="I7_S_I7" from="I7" to="S_I7" numLanes="1" speed="8.33" priority="2"/>
</edges>
