<?xml version="1.0" ?>
<nodes>
  <node id="CITY_EAST" x="-420.00" y="15.00" type="priority" z="102.00"/>
  <node id="ATLANTIC_WEST" x="5050.00" y="170.00" type="priority" z="6.00"/>
  <node id="I1" x="0.00" y="0.00" type="traffic_light" z="95.00"/>
  <node id="N_I1" x="0.00" y="420.00" type="priority" z="93.50"/>
  <node id="S_I1" x="0.00" y="-420.00" type="priority" z="93.50"/>
  <node id="I2" x="650.00" y="-25.00" type="traffic_light" z="88.00"/>
  <node id="N_I2" x="650.00" y="395.00" type="priority" z="86.50"/>
  <node id="S_I2" x="650.00" y="-445.00" type="priority" z="86.50"/>
  <node id="I3" x="1350.00" y="-85.00" type="traffic_light" z="72.00"/>
  <node id="N_I3" x="1350.00" y="335.00" type="priority" z="70.50"/>
  <node id="S_I3" x="1350.00" y="-505.00" type="priority" z="70.50"/>
  <node id="I4" x="2150.00" y="-130.00" type="traffic_light" z="55.00"/>
  <node id="N_I4" x="2150.00" y="290.00" type="priority" z="53.50"/>
  <node id="S_I4" x="2150.00" y="-550.00" type="priority" z="53.50"/>
  <node id="I5" x="2950.00" y="-80.00" type="traffic_light" z="42.00"/>
  <node id="N_I5" x="2950.00" y="340.00" type="priority" z="40.50"/>
  <node id="S_I5" x="2950.00" y="-500.00" type="priority" z="40.50"/>
  <node id="I6" x="3820.00" y="45.00" type="priority" z="28.00"/>
  <node id="N_I6" x="3820.00" y="465.00" type="priority" z="26.50"/>
  <node id="S_I6" x="3820.00" y="-375.00" type="priority" z="26.50"/>
  <node id="I7" x="4650.00" y="125.00" type="traffic_light" z="12.00"/>
  <node id="N_I7" x="4650.00" y="545.00" type="priority" z="10.50"/>
  <node id="S_I7" x="4650.00" y="-295.00" type="priority" z="10.50"/>
</nodes>
