<?xml version="1.0" ?>
<routes xmlns:xsi="http://www.w3.org/2001/XMLSchema-instance" xsi:noNamespaceSchemaLocation="http://sumo.dlr.de/xsd/routes_file.xsd">
  <vType id="car" vClass="passenger" length="5.0" accel="2.4" decel="4.5" emergencyDecel="7.0" sigma="0.5" tau="1.1" minGap="2.5" maxSpeed="13.89" speedFactor="normc(1.0,0.10,0.7,1.3)" carFollowModel="EIDM" delta="4.0" tpreview="4.0" tPersDrive="3.0" tPersEstimate="10.0" ccoolness="0.99" laneChangeModel="LC2013" lcAssertive="1.0" lcCooperative="0.7" lcImpatience="0.3" lcStrategic="1.0" lcKeepRight="0.8" emissionClass="HBEFA3/PC_G_EU6" jmCrossingGap="10" jmIgnoreFoeProb="0.0" impatience="0.5" color="0.7,0.7,0.7">
    <param key="has.driverstate.device" value="true"/>
    <param key="device.driverstate.minAwareness" value="0.75"/>
    <param key="device.driverstate.errorTimeScaleCoefficient" value="100"/>
    <param key="device.driverstate.maximalReactionTime" value="2.0"/>
  </vType>
  <vType id="car_cautious" vClass="passenger" length="5.0" accel="2.0" decel="4.0" emergencyDecel="6.5" sigma="0.25" tau="1.4" minGap="3.0" maxSpeed="13.89" speedFactor="normc(0.92,0.08,0.65,1.10)" carFollowModel="EIDM" delta="4.0" tpreview="5.0" tPersDrive="4.0" tPersEstimate="12.0" ccoolness="0.99" laneChangeModel="LC2013" lcAssertive="0.5" lcCooperative="0.9" lcImpatience="0.1" lcStrategic="0.7" lcKeepRight="1.0" emissionClass="HBEFA3/PC_G_EU5" jmCrossingGap="14" jmIgnoreFoeProb="0.0" impatience="off" color="0.55,0.75,0.55">
    <param key="has.driverstate.device" value="true"/>
    <param key="device.driverstate.minAwareness" value="0.90"/>
    <param key="device.driverstate.maximalReactionTime" value="1.8"/>
  </vType>
  <vType id="car_aggressive" vClass="passenger" length="5.0" accel="2.8" decel="5.0" emergencyDecel="8.0" sigma="0.8" tau="0.8" minGap="1.8" maxSpeed="13.89" speedFactor="normc(1.10,0.12,0.85,1.45)" carFollowModel="EIDM" delta="4.0" tpreview="3.0" tPersDrive="2.0" tPersEstimate="8.0" ccoolness="0.85" laneChangeModel="LC2013" lcAssertive="1.8" lcCooperative="0.4" lcImpatience="0.7" lcStrategic="1.5" lcKeepRight="0.4" lcSpeedGain="1.5" emissionClass="HBEFA3/PC_G_EU6" jmCrossingGap="6" jmIgnoreFoeProb="0.05" impatience="1.0" color="0.85,0.30,0.30">
    <param key="has.driverstate.device" value="true"/>
    <param key="device.driverstate.minAwareness" value="0.55"/>
    <param key="device.driverstate.errorTimeScaleCoefficient" value="60"/>
    <param key="device.driverstate.maximalReactionTime" value="2.5"/>
  </vType>
  <vType id="car_acc" vClass="passenger" length="5.0" accel="2.6" decel="4.8" emergencyDecel="7.5" sigma="0.05" tau="1.0" minGap="2.0" maxSpeed="13.89" speedFactor="normc(1.0,0.04,0.9,1.10)" carFollowModel="ACC" laneChangeModel="LC2013" lcAssertive="1.1" lcCooperative="0.85" lcImpatience="0.1" lcStrategic="1.0" lcKeepRight="0.7" emissionClass="HBEFA3/PC_G_EU6" jmCrossingGap="9" jmIgnoreFoeProb="0.0" impatience="0.15" actionStepLength="0.5" color="0.25,0.65,1.0">
    <param key="has.bluelight.device" value="false"/>
  </vType>
  <vType id="car_cacc" vClass="passenger" length="5.0" accel="2.8" decel="5.0" emergencyDecel="8.0" sigma="0.0" tau="0.7" minGap="1.5" maxSpeed="13.89" speedFactor="normc(1.0,0.02,0.95,1.05)" carFollowModel="CACC" laneChangeModel="LC2013" lcAssertive="1.0" lcCooperative="1.0" lcImpatience="0.05" lcStrategic="1.0" lcKeepRight="0.5" emissionClass="HBEFA3/PC_G_EU6" jmCrossingGap="8" jmIgnoreFoeProb="0.0" impatience="0.0" actionStepLength="0.5" color="0.40,0.85,0.40"/>
  <vType id="car_acc_ev" vClass="passenger" length="5.0" accel="2.6" decel="4.8" emergencyDecel="7.5" sigma="0.05" tau="1.0" minGap="2.0" maxSpeed="13.89" speedFactor="normc(1.0,0.04,0.9,1.10)" carFollowModel="ACC" laneChangeModel="LC2013" lcAssertive="1.1" lcCooperative="0.85" lcImpatience="0.1" lcStrategic="1.0" lcKeepRight="0.7" emissionClass="HBEFA3/zero" jmCrossingGap="9" jmIgnoreFoeProb="0.0" impatience="0.15" actionStepLength="0.5" color="0.10,0.80,1.0"/>
  <vType id="car_cacc_ev" vClass="passenger" length="5.0" accel="2.8" decel="5.0" emergencyDecel="8.0" sigma="0.0" tau="0.7" minGap="1.5" maxSpeed="13.89" speedFactor="normc(1.0,0.02,0.95,1.05)" carFollowModel="CACC" laneChangeModel="LC2013" lcAssertive="1.0" lcCooperative="1.0" lcImpatience="0.05" lcStrategic="1.0" lcKeepRight="0.5" emissionClass="HBEFA3/zero" jmCrossingGap="8" jmIgnoreFoeProb="0.0" impatience="0.0" actionStepLength="0.5" color="0.20,0.95,0.55"/>
  <vType id="motorcycle" vClass="motorcycle" length="2.2" accel="3.2" decel="5.5" emergencyDecel="8.5" sigma="0.55" tau="0.8" minGap="1.5" maxSpeed="16.67" speedFactor="normc(1.05,0.12,0.7,1.4)" carFollowModel="EIDM" delta="4.0" tpreview="3.0" tPersDrive="2.0" tPersEstimate="8.0" ccoolness="0.90" laneChangeModel="LC2013" lcAssertive="2.0" lcCooperative="0.4" lcImpatience="0.7" lcStrategic="1.5" lcKeepRight="0.2" lcSpeedGain="2.0" lcSublane="1.5" emissionClass="HBEFA3/PC_G_EU6" jmCrossingGap="5" jmIgnoreFoeProb="0.1" impatience="1.0" guiShape="motorcycle" color="1,0.55,0"/>
  <vType id="taxi" vClass="taxi" length="5.0" accel="2.6" decel="4.8" emergencyDecel="7.5" sigma="0.55" tau="1.0" minGap="2.2" maxSpeed="13.89" speedFactor="normc(1.05,0.10,0.8,1.3)" carFollowModel="EIDM" delta="4.0" tpreview="3.5" tPersDrive="2.5" tPersEstimate="9.0" ccoolness="0.92" laneChangeModel="LC2013" lcAssertive="1.5" lcCooperative="0.5" lcImpatience="0.6" lcStrategic="1.2" lcKeepRight="0.5" emissionClass="HBEFA3/PC_G_EU6" jmCrossingGap="7" jmIgnoreFoeProb="0.05" impatience="0.8" guiShape="taxi" color="1,0.85,0"/>
  <vType id="lcv" vClass="delivery" length="6.5" accel="1.8" decel="4.0" emergencyDecel="6.5" sigma="0.45" tau="1.2" minGap="2.8" maxSpeed="13.89" speedFactor="normc(0.95,0.08,0.7,1.15)" carFollowModel="EIDM" delta="4.0" tpreview="4.0" tPersDrive="3.0" tPersEstimate="10.0" ccoolness="0.95" laneChangeModel="LC2013" lcAssertive="0.8" lcCooperative="0.8" lcImpatience="0.2" lcStrategic="0.9" lcKeepRight="1.0" emissionClass="HBEFA3/LDV_D_EU6" jmCrossingGap="12" jmIgnoreFoeProb="0.0" impatience="0.3" guiShape="delivery" color="0.85,0.85,0.95"/>
  <vType id="hgv" vClass="truck" length="9.0" accel="1.2" decel="3.5" emergencyDecel="5.5" sigma="0.35" tau="1.6" minGap="3.5" maxSpeed="13.89" speedFactor="normc(0.90,0.06,0.75,1.05)" carFollowModel="EIDM" delta="4.0" tpreview="5.0" tPersDrive="3.5" tPersEstimate="11.0" ccoolness="0.97" laneChangeModel="LC2013" lcAssertive="0.6" lcCooperative="0.85" lcImpatience="0.15" lcStrategic="0.8" lcKeepRight="1.0" emissionClass="HBEFA3/HDV_D_EU6" jmCrossingGap="16" jmIgnoreFoeProb="0.0" impatience="0.2" guiShape="truck" color="0.4,0.4,0.45"/>
  <vType id="bus_12m" vClass="bus" length="12.0" accel="1.1" decel="3.5" emergencyDecel="5.5" sigma="0.25" tau="1.4" minGap="3.0" maxSpeed="13.89" speedFactor="normc(0.95,0.05,0.80,1.05)" carFollowModel="EIDM" delta="4.0" tpreview="5.0" tPersDrive="3.5" tPersEstimate="11.0" ccoolness="0.99" laneChangeModel="LC2013" lcAssertive="0.7" lcCooperative="0.9" lcImpatience="0.1" lcStrategic="0.7" lcKeepRight="0.6" emissionClass="HBEFA3/HDV_D_EU6" jmCrossingGap="18" jmIgnoreFoeProb="0.0" impatience="0.1" guiShape="bus" color="0,0,1"/>
  <vType id="emergency_vehicle" vClass="emergency" length="5.5" accel="2.8" decel="5.0" emergencyDecel="8.5" sigma="0.2" tau="0.9" minGap="2.0" maxSpeed="16.67" speedFactor="normc(1.15,0.05,1.0,1.3)" carFollowModel="EIDM" delta="4.0" tpreview="4.0" tPersDrive="2.5" tPersEstimate="9.0" ccoolness="0.99" laneChangeModel="LC2013" lcAssertive="2.5" lcCooperative="0.5" lcImpatience="0.9" lcStrategic="1.8" lcKeepRight="0.0" emissionClass="HBEFA3/PC_G_EU6" jmCrossingGap="4" jmIgnoreFoeProb="0.1" impatience="1.0" guiShape="emergency" color="1,0,0"/>
  <vTypeDistribution id="urban_mix" vTypes="car car_cautious car_aggressive motorcycle taxi lcv hgv" probabilities="0.3600 0.1800 0.1800 0.1000 0.0600 0.0800 0.0400"/>
  <vTypeDistribution id="cross_street_mix" vTypes="car car_cautious car_aggressive motorcycle taxi lcv hgv" probabilities="0.3900 0.2000 0.1900 0.1200 0.0500 0.0400 0.0100"/>
  <route id="route_boavista_east_to_west" edges="CITY_EAST_I1 I1_I2 I2_I3 I3_I4 I4_I5 I5_I6 RB_I6_CITY_TO_NORTH RB_I6_NORTH_TO_ATLANTIC I6_I7 I7_ATLANTIC_WEST"/>
  <route id="route_boavista_west_to_east" edges="ATLANTIC_WEST_I7 I7_I6 RB_I6_ATLANTIC_TO_SOUTH RB_I6_SOUTH_TO_CITY I6_I5 I5_I4 I4_I3 I3_I2 I2_I1 I1_CITY_EAST"/>
  <route id="route_emergency_west_to_east" edges="ATLANTIC_WEST_I7 I7_I6 RB_I6_ATLANTIC_TO_SOUTH RB_I6_SOUTH_TO_CITY I6_I5 I5_I4 I4_I3 I3_I2 I2_I1 I1_CITY_EAST"/>
  <route id="route_cross_NS_I1" edges="N_I1_I1 I1_S_I1"/>
  <route id="route_cross_SN_I1" edges="S_I1_I1 I1_N_I1"/>
  <route id="route_cross_NS_I2" edges="N_I2_I2 I2_S_I2"/>
  <route id="route_cross_SN_I2" edges="S_I2_I2 I2_N_I2"/>
  <route id="route_cross_NS_I3" edges="N_I3_I3 I3_S_I3"/>
  <route id="route_cross_SN_I3" edges="S_I3_I3 I3_N_I3"/>
  <route id="route_cross_NS_I4" edges="N_I4_I4 I4_S_I4"/>
  <route id="route_cross_SN_I4" edges="S_I4_I4 I4_N_I4"/>
  <route id="route_cross_NS_I5" edges="N_I5_I5 I5_S_I5"/>
  <route id="route_cross_SN_I5" edges="S_I5_I5 I5_N_I5"/>
  <route id="route_cross_NS_I6" edges="N_I6_I6 RB_I6_NORTH_TO_ATLANTIC RB_I6_ATLANTIC_TO_SOUTH I6_S_I6"/>
  <route id="route_cross_SN_I6" edges="S_I6_I6 RB_I6_SOUTH_TO_CITY RB_I6_CITY_TO_NORTH I6_N_I6"/>
  <route id="route_cross_NS_I7" edges="N_I7_I7 I7_S_I7"/>
  <route id="route_cross_SN_I7" edges="S_I7_I7 I7_N_I7"/>
  <route id="route_main_inbound_turn_to_N_I1" edges="ATLANTIC_WEST_I7 I7_I6 RB_I6_ATLANTIC_TO_SOUTH RB_I6_SOUTH_TO_CITY I6_I5 I5_I4 I4_I3 I3_I2 I2_I1 I1_N_I1"/>
  <route id="route_main_inbound_turn_to_S_I1" edges="ATLANTIC_WEST_I7 I7_I6 RB_I6_ATLANTIC_TO_SOUTH RB_I6_SOUTH_TO_CITY I6_I5 I5_I4 I4_I3 I3_I2 I2_I1 I1_S_I1"/>
  <route id="route_main_outbound_turn_to_N_I1" edges="CITY_EAST_I1 I1_N_I1"/>
  <route id="route_main_outbound_turn_to_S_I1" edges="CITY_EAST_I1 I1_S_I1"/>
  <route id="route_minor_N_I1_to_city" edges="N_I1_I1 I1_CITY_EAST"/>
  <route id="route_minor_N_I1_to_atlantic" edges="N_I1_I1 I1_I2 I2_I3 I3_I4 I4_I5 I5_I6 RB_I6_CITY_TO_NORTH RB_I6_NORTH_TO_ATLANTIC I6_I7 I7_ATLANTIC_WEST"/>
  <route id="route_minor_S_I1_to_city" edges="S_I1_I1 I1_CITY_EAST"/>
  <route id="route_minor_S_I1_to_atlantic" edges="S_I1_I1 I1_I2 I2_I3 I3_I4 I4_I5 I5_I6 RB_I6_CITY_TO_NORTH RB_I6_NORTH_TO_ATLANTIC I6_I7 I7_ATLANTIC_WEST"/>
  <route id="route_main_inbound_turn_to_N_I2" edges="ATLANTIC_WEST_I7 I7_I6 RB_I6_ATLANTIC_TO_SOUTH RB_I6_SOUTH_TO_CITY I6_I5 I5_I4 I4_I3 I3_I2 I2_N_I2"/>
  <route id="route_main_inbound_turn_to_S_I2" edges="ATLANTIC_WEST_I7 I7_I6 RB_I6_ATLANTIC_TO_SOUTH RB_I6_SOUTH_TO_CITY I6_I5 I5_I4 I4_I3 I3_I2 I2_S_I2"/>
  <route id="route_main_outbound_turn_to_N_I2" edges="CITY_EAST_I1 I1_I2 I2_N_I2"/>
  <route id="route_main_outbound_turn_to_S_I2" edges="CITY_EAST_I1 I1_I2 I2_S_I2"/>
  <route id="route_minor_N_I2_to_city" edges="N_I2_I2 I2_I1 I1_CITY_EAST"/>
  <route id="route_minor_N_I2_to_atlantic" edges="N_I2_I2 I2_I3 I3_I4 I4_I5 I5_I6 RB_I6_CITY_TO_NORTH RB_I6_NORTH_TO_ATLANTIC I6_I7 I7_ATLANTIC_WEST"/>
  <route id="route_minor_S_I2_to_city" edges="S_I2_I2 I2_I1 I1_CITY_EAST"/>
  <route id="route_minor_S_I2_to_atlantic" edges="S_I2_I2 I2_I3 I3_I4 I4_I5 I5_I6 RB_I6_CITY_TO_NORTH RB_I6_NORTH_TO_ATLANTIC I6_I7 I7_ATLANTIC_WEST"/>
  <route id="route_main_inbound_turn_to_N_I3" edges="ATLANTIC_WEST_I7 I7_I6 RB_I6_ATLANTIC_TO_SOUTH RB_I6_SOUTH_TO_CITY I6_I5 I5_I4 I4_I3 I3_N_I3"/>
  <route id="route_main_inbound_turn_to_S_I3" edges="ATLANTIC_WEST_I7 I7_I6 RB_I6_ATLANTIC_TO_SOUTH RB_I6_SOUTH_TO_CITY I6_I5 I5_I4 I4_I3 I3_S_I3"/>
  <route id="route_main_outbound_turn_to_N_I3" edges="CITY_EAST_I1 I1_I2 I2_I3 I3_N_I3"/>
  <route id="route_main_outbound_turn_to_S_I3" edges="CITY_EAST_I1 I1_I2 I2_I3 I3_S_I3"/>
  <route id="route_minor_N_I3_to_city" edges="N_I3_I3 I3_I2 I2_I1 I1_CITY_EAST"/>
  <route id="route_minor_N_I3_to_atlantic" edges="N_I3_I3 I3_I4 I4_I5 I5_I6 RB_I6_CITY_TO_NORTH RB_I6_NORTH_TO_ATLANTIC I6_I7 I7_ATLANTIC_WEST"/>
  <route id="route_minor_S_I3_to_city" edges="S_I3_I3 I3_I2 I2_I1 I1_CITY_EAST"/>
  <route id="route_minor_S_I3_to_atlantic" edges="S_I3_I3 I3_I4 I4_I5 I5_I6 RB_I6_CITY_TO_NORTH RB_I6_NORTH_TO_ATLANTIC I6_I7 I7_ATLANTIC_WEST"/>
  <route id="route_main_inbound_turn_to_N_I4" edges="ATLANTIC_WEST_I7 I7_I6 RB_I6_ATLANTIC_TO_SOUTH RB_I6_SOUTH_TO_CITY I6_I5 I5_I4 I4_N_I4"/>
  <route id="route_main_inbound_turn_to_S_I4" edges="ATLANTIC_WEST_I7 I7_I6 RB_I6_ATLANTIC_TO_SOUTH RB_I6_SOUTH_TO_CITY I6_I5 I5_I4 I4_S_I4"/>
  <route id="route_main_outbound_turn_to_N_I4" edges="CITY_EAST_I1 I1_I2 I2_I3 I3_I4 I4_N_I4"/>
  <route id="route_main_outbound_turn_to_S_I4" edges="CITY_EAST_I1 I1_I2 I2_I3 I3_I4 I4_S_I4"/>
  <route id="route_minor_N_I4_to_city" edges="N_I4_I4 I4_I3 I3_I2 I2_I1 I1_CITY_EAST"/>
  <route id="route_minor_N_I4_to_atlantic" edges="N_I4_I4 I4_I5 I5_I6 RB_I6_CITY_TO_NORTH RB_I6_NORTH_TO_ATLANTIC I6_I7 I7_ATLANTIC_WEST"/>
  <route id="route_minor_S_I4_to_city" edges="S_I4_I4 I4_I3 I3_I2 I2_I1 I1_CITY_EAST"/>
  <route id="route_minor_S_I4_to_atlantic" edges="S_I4_I4 I4_I5 I5_I6 RB_I6_CITY_TO_NORTH RB_I6_NORTH_TO_ATLANTIC I6_I7 I7_ATLANTIC_WEST"/>
  <route id="route_main_inbound_turn_to_N_I5" edges="ATLANTIC_WEST_I7 I7_I6 RB_I6_ATLANTIC_TO_SOUTH RB_I6_SOUTH_TO_CITY I6_I5 I5_N_I5"/>
  <route id="route_main_inbound_turn_to_S_I5" edges="ATLANTIC_WEST_I7 I7_I6 RB_I6_ATLANTIC_TO_SOUTH RB_I6_SOUTH_TO_CITY I6_I5 I5_S_I5"/>
  <route id="route_main_outbound_turn_to_N_I5" edges="CITY_EAST_I1 I1_I2 I2_I3 I3_I4 I4_I5 I5_N_I5"/>
  <route id="route_main_outbound_turn_to_S_I5" edges="CITY_EAST_I1 I1_I2 I2_I3 I3_I4 I4_I5 I5_S_I5"/>
  <route id="route_minor_N_I5_to_city" edges="N_I5_I5 I5_I4 I4_I3 I3_I2 I2_I1 I1_CITY_EAST"/>
  <route id="route_minor_N_I5_to_atlantic" edges="N_I5_I5 I5_I6 RB_I6_CITY_TO_NORTH RB_I6_NORTH_TO_ATLANTIC I6_I7 I7_ATLANTIC_WEST"/>
  <route id="route_minor_S_I5_to_city" edges="S_I5_I5 I5_I4 I4_I3 I3_I2 I2_I1 I1_CITY_EAST"/>
  <route id="route_minor_S_I5_to_atlantic" edges="S_I5_I5 I5_I6 RB_I6_CITY_TO_NORTH RB_I6_NORTH_TO_ATLANTIC I6_I7 I7_ATLANTIC_WEST"/>
  <route id="route_main_inbound_turn_to_N_I6" edges="ATLANTIC_WEST_I7 I7_I6 RB_I6_ATLANTIC_TO_SOUTH RB_I6_SOUTH_TO_CITY RB_I6_CITY_TO_NORTH I6_N_I6"/>
  <route id="route_main_inbound_turn_to_S_I6" edges="ATLANTIC_WEST_I7 I7_I6 RB_I6_ATLANTIC_TO_SOUTH I6_S_I6"/>
  <route id="route_main_outbound_turn_to_N_I6" edges="CITY_EAST_I1 I1_I2 I2_I3 I3_I4 I4_I5 I5_I6 RB_I6_CITY_TO_NORTH I6_N_I6"/>
  <route id="route_main_outbound_turn_to_S_I6" edges="CITY_EAST_I1 I1_I2 I2_I3 I3_I4 I4_I5 I5_I6 RB_I6_CITY_TO_NORTH RB_I6_NORTH_TO_ATLANTIC RB_I6_ATLANTIC_TO_SOUTH I6_S_I6"/>
  <route id="route_minor_N_I6_to_city" edges="N_I6_I6 RB_I6_NORTH_TO_ATLANTIC RB_I6_ATLANTIC_TO_SOUTH RB_I6_SOUTH_TO_CITY I6_I5 I5_I4 I4_I3 I3_I2 I2_I1 I1_CITY_EAST"/>
  <route id="route_minor_N_I6_to_atlantic" edges="N_I6_I6 RB_I6_NORTH_TO_ATLANTIC I6_I7 I7_ATLANTIC_WEST"/>
  <route id="route_minor_S_I6_to_city" edges="S_I6_I6 RB_I6_SOUTH_TO_CITY I6_I5 I5_I4 I4_I3 I3_I2 I2_I1 I1_CITY_EAST"/>
  <route id="route_minor_S_I6_to_atlantic" edges="S_I6_I6 RB_I6_SOUTH_TO_CITY RB_I6_CITY_TO_NORTH RB_I6_NORTH_TO_ATLANTIC I6_I7 I7_ATLANTIC_WEST"/>
  <route id="route_main_inbound_turn_to_N_I7" edges="ATLANTIC_WEST_I7 I7_N_I7"/>
  <route id="route_main_inbound_turn_to_S_I7" edges="ATLANTIC_WEST_I7 I7_S_I7"/>
  <route id="route_main_outbound_turn_to_N_I7" edges="CITY_EAST_I1 I1_I2 I2_I3 I3_I4 I4_I5 I5_I6 RB_I6_CITY_TO_NORTH RB_I6_NORTH_TO_ATLANTIC I6_I7 I7_N_I7"/>
  <route id="route_main_outbound_turn_to_S_I7" edges="CITY_EAST_I1 I1_I2 I2_I3 I3_I4 I4_I5 I5_I6 RB_I6_CITY_TO_NORTH RB_I6_NORTH_TO_ATLANTIC I6_I7 I7_S_I7"/>
  <route id="route_minor_N_I7_to_city" edges="N_I7_I7 I7_I6 RB_I6_ATLANTIC_TO_SOUTH RB_I6_SOUTH_TO_CITY I6_I5 I5_I4 I4_I3 I3_I2 I2_I1 I1_CITY_EAST"/>
  <route id="route_minor_N_I7_to_atlantic" edges="N_I7_I7 I7_ATLANTIC_WEST"/>
  <route id="route_minor_S_I7_to_city" edges="S_I7_I7 I7_I6 RB_I6_ATLANTIC_TO_SOUTH RB_I6_SOUTH_TO_CITY I6_I5 I5_I4 I4_I3 I3_I2 I2_I1 I1_CITY_EAST"/>
  <route id="route_minor_S_I7_to_atlantic" edges="S_I7_I7 I7_ATLANTIC_WEST"/>
  <flow id="flow_car_inbound_west_to_east_am_peak_t0" type="urban_mix" route="route_boavista_west_to_east" begin="0" end="1200" period="exp(0.130005)" departLane="best" departSpeed="max"/>
  <flow id="flow_car_outbound_east_to_west_am_peak_t0" type="urban_mix" route="route_boavista_east_to_west" begin="0" end="1200" period="exp(0.107689)" departLane="best" departSpeed="max"/>
  <personFlow id="ped_I1_NS" begin="0" end="7200" period="exp(0.040000)" departPos="random">
    <walk from="N_I1_I1" to="I1_S_I1"/>
  </personFlow>
  <personFlow id="ped_I2_NS" begin="0" end="7200" period="exp(0.022222)">
    <walk from="N_I2_I2" to="I2_S_I2"/>
  </personFlow>
  <personFlow id="ped_I3_NS" begin="0" end="7200" period="exp(0.016667)">
    <walk from="N_I3_I3" to="I3_S_I3"/>
  </personFlow>
  <personFlow id="ped_I4_NS" begin="0" end="7200" period="exp(0.012500)">
    <walk from="N_I4_I4" to="I4_S_I4"/>
  </personFlow>
  <personFlow id="ped_I5_NS" begin="0" end="7200" period="exp(0.018182)">
    <walk from="N_I5_I5" to="I5_S_I5"/>
  </personFlow>
  <personFlow id="ped_I6_NS" begin="0" end="7200" period="exp(0.045455)" departPos="random">
    <walk from="N_I6_I6" to="I6_S_I6"/>
  </personFlow>
  <personFlow id="ped_I7_NS" begin="0" end="7200" period="exp(0.020000)">
    <walk from="N_I7_I7" to="I7_S_I7"/>
  </personFlow>
  <personFlow id="pax_casa_musica_to_castelo_w" begin="0" end="7200" period="exp(0.008333)">
    <walk from="N_I1_I1" busStop="bs_casa_musica_w"/>
    <ride busStop="bs_castelo_queijo_w" lines="STCP500_PROXY_W"/>
  </personFlow>
  <personFlow id="pax_serralves_to_imperio_w" begin="0" end="7200" period="exp(0.005556)">
    <walk from="S_I4_I4" busStop="bs_serralves_w"/>
    <ride busStop="bs_praca_imperio_w" lines="STCP500_PROXY_W"/>
  </personFlow>
  <personFlow id="pax_castelo_to_casa_musica_e" begin="0" end="7200" period="exp(0.006667)">
    <walk from="S_I7_I7" busStop="bs_castelo_queijo_e"/>
    <ride busStop="bs_casa_musica_e" lines="STCP500_PROXY_E"/>
  </personFlow>
  <personFlow id="pax_bessa_to_marechal_502" begin="0" end="7200" period="exp(0.004167)">
    <walk from="N_I2_I2" busStop="bs_bessa_w"/>
    <ride busStop="bs_marechal_w" lines="STCP502_PROXY_W"/>
  </personFlow>
  <flow id="flow_minor_NS_I1" type="cross_street_mix" route="route_cross_NS_I1" begin="10" end="6900" period="exp(0.050000)" departLane="best" departSpeed="max"/>
  <flow id="flow_minor_SN_I1" type="cross_street_mix" route="route_cross_SN_I1" begin="14" end="6900" period="exp(0.041667)" departLane="best" departSpeed="max"/>
  <flow id="flow_minor_NS_I2" type="cross_street_mix" route="route_cross_NS_I2" begin="20" end="6900" period="exp(0.031250)" departLane="best" departSpeed="max"/>
  <flow id="flow_main_outbound_turn_N_at_I1" type="urban_mix" route="route_main_outbound_turn_to_N_I1" begin="22" end="6900" period="exp(0.003571)" departLane="best" departSpeed="max"/>
  <flow id="flow_minor_N_to_city_at_I1" type="cross_street_mix" route="route_minor_N_I1_to_city" begin="25" end="6900" period="exp(0.012500)" departLane="best" departSpeed="max"/>
  <vehicle id="bus_STCP500_W_0025" type="bus_12m" route="route_boavista_east_to_west" depart="25.569" line="STCP500_PROXY_W" departLane="best" departSpeed="0">
    <stop busStop="bs_casa_musica_w" duration="21.239" parking="true"/>
    <stop busStop="bs_bessa_w" duration="26.559"/>
    <stop busStop="bs_antunes_guimaraes_w" duration="28.738"/>
    <stop busStop="bs_serralves_w" duration="19.745" parking="true"/>
    <stop busStop="bs_marechal_w" duration="22.666"/>
    <stop busStop="bs_praca_imperio_w" duration="23.426" parking="true"/>
    <stop busStop="bs_castelo_queijo_w" duration="18.234" parking="true"/>
  </vehicle>
  <flow id="flow_minor_SN_I2" type="cross_street_mix" route="route_cross_SN_I2" begin="28" end="6900" period="exp(0.025000)" departLane="best" departSpeed="max"/>
  <flow id="flow_minor_NS_I3" type="cross_street_mix" route="route_cross_NS_I3" begin="30" end="6900" period="exp(0.031250)" departLane="best" departSpeed="max"/>
  <flow id="flow_main_inbound_turn_N_at_I1" type="urban_mix" route="route_main_inbound_turn_to_N_I1" begin="30" end="6900" period="exp(0.005263)" departLane="best" departSpeed="max"/>
  <flow id="flow_minor_N_to_city_at_I2" type="cross_street_mix" route="route_minor_N_I2_to_city" begin="30" end="6900" period="exp(0.007812)" departLane="best" departSpeed="max"/>
  <flow id="flow_main_outbound_turn_S_at_I1" type="urban_mix" route="route_main_outbound_turn_to_S_I1" begin="34" end="6900" period="exp(0.003571)" departLane="best" departSpeed="max"/>
  <flow id="flow_minor_S_to_city_at_I1" type="cross_street_mix" route="route_minor_S_I1_to_city" begin="35" end="6900" period="exp(0.010417)" departLane="best" departSpeed="max"/>
  <flow id="flow_minor_N_to_city_at_I3" type="cross_street_mix" route="route_minor_N_I3_to_city" begin="38" end="6900" period="exp(0.007812)" departLane="best" departSpeed="max"/>
  <flow id="flow_minor_NS_I4" type="cross_street_mix" route="route_cross_NS_I4" begin="40" end="6900" period="exp(0.020000)" departLane="best" departSpeed="max"/>
  <flow id="flow_main_inbound_turn_S_at_I1" type="urban_mix" route="route_main_inbound_turn_to_S_I1" begin="40" end="6900" period="exp(0.005263)" departLane="best" departSpeed="max"/>
  <flow id="flow_minor_SN_I3" type="cross_street_mix" route="route_cross_SN_I3" begin="42" end="6900" period="exp(0.025000)" departLane="best" departSpeed="max"/>
  <flow id="flow_minor_S_to_city_at_I2" type="cross_street_mix" route="route_minor_S_I2_to_city" begin="42" end="6900" period="exp(0.006250)" departLane="best" departSpeed="max"/>
  <flow id="flow_minor_N_to_atlantic_at_I1" type="cross_street_mix" route="route_minor_N_I1_to_atlantic" begin="45" end="6900" period="exp(0.012500)" departLane="best" departSpeed="max"/>
  <flow id="flow_minor_N_to_city_at_I4" type="cross_street_mix" route="route_minor_N_I4_to_city" begin="48" end="6900" period="exp(0.005000)" departLane="best" departSpeed="max"/>
  <flow id="flow_minor_NS_I5" type="cross_street_mix" route="route_cross_NS_I5" begin="50" end="6900" period="exp(0.031250)" departLane="best" departSpeed="max"/>
  <flow id="flow_main_outbound_turn_N_at_I2" type="urban_mix" route="route_main_outbound_turn_to_N_I2" begin="50" end="6900" period="exp(0.001818)" departLane="best" departSpeed="max"/>
  <flow id="flow_minor_S_to_city_at_I3" type="cross_street_mix" route="route_minor_S_I3_to_city" begin="50" end="6900" period="exp(0.006250)" departLane="best" departSpeed="max"/>
  <flow id="flow_minor_S_to_atlantic_at_I1" type="cross_street_mix" route="route_minor_S_I1_to_atlantic" begin="55" end="6900" period="exp(0.010417)" departLane="best" departSpeed="max"/>
  <flow id="flow_minor_N_to_atlantic_at_I2" type="cross_street_mix" route="route_minor_N_I2_to_atlantic" begin="55" end="6900" period="exp(0.007812)" departLane="best" departSpeed="max"/>
  <flow id="flow_minor_SN_I4" type="cross_street_mix" route="route_cross_SN_I4" begin="56" end="6900" period="exp(0.016667)" departLane="best" departSpeed="max"/>
  <flow id="flow_minor_N_to_city_at_I5" type="cross_street_mix" route="route_minor_N_I5_to_city" begin="58" end="6900" period="exp(0.007812)" departLane="best" departSpeed="max"/>
  <flow id="flow_minor_NS_I6" type="cross_street_mix" route="route_cross_NS_I6" begin="60" end="6900" period="exp(0.050000)" departLane="best" departSpeed="max"/>
  <flow id="flow_main_inbound_turn_N_at_I2" type="urban_mix" route="route_main_inbound_turn_to_N_I2" begin="60" end="6900" period="exp(0.002667)" departLane="best" departSpeed="max"/>
  <flow id="flow_main_outbound_turn_N_at_I6" type="urban_mix" route="route_main_outbound_turn_to_N_I6" begin="60" end="6900" period="exp(0.003571)" departLane="best" departSpeed="max"/>
  <flow id="flow_minor_N_to_atlantic_at_I3" type="cross_street_mix" route="route_minor_N_I3_to_atlantic" begin="62" end="6900" period="exp(0.007812)" departLane="best" departSpeed="max"/>
  <flow id="flow_minor_S_to_city_at_I4" type="cross_street_mix" route="route_minor_S_I4_to_city" begin="64" end="6900" period="exp(0.004167)" departLane="best" departSpeed="max"/>
  <flow id="flow_main_inbound_turn_N_at_I6" type="urban_mix" route="route_main_inbound_turn_to_N_I6" begin="65" end="6900" period="exp(0.005263)" departLane="best" departSpeed="max"/>
  <flow id="flow_minor_N_to_city_at_I6" type="cross_street_mix" route="route_minor_N_I6_to_city" begin="65" end="6900" period="exp(0.012500)" departLane="best" departSpeed="max"/>
  <flow id="flow_minor_S_to_atlantic_at_I2" type="cross_street_mix" route="route_minor_S_I2_to_atlantic" begin="68" end="6900" period="exp(0.006250)" departLane="best" departSpeed="max"/>
  <flow id="flow_minor_SN_I5" type="cross_street_mix" route="route_cross_SN_I5" begin="70" end="6900" period="exp(0.025000)" departLane="best" departSpeed="max"/>
  <flow id="flow_minor_NS_I7" type="cross_street_mix" route="route_cross_NS_I7" begin="70" end="6900" period="exp(0.031250)" departLane="best" departSpeed="max"/>
  <flow id="flow_main_outbound_turn_N_at_I3" type="urban_mix" route="route_main_outbound_turn_to_N_I3" begin="70" end="6900" period="exp(0.001818)" departLane="best" departSpeed="max"/>
  <flow id="flow_minor_S_to_city_at_I5" type="cross_street_mix" route="route_minor_S_I5_to_city" begin="72" end="6900" period="exp(0.006250)" departLane="best" departSpeed="max"/>
  <flow id="flow_main_inbound_turn_S_at_I2" type="urban_mix" route="route_main_inbound_turn_to_S_I2" begin="75" end="6900" period="exp(0.002667)" departLane="best" departSpeed="max"/>
  <flow id="flow_minor_S_to_city_at_I6" type="cross_street_mix" route="route_minor_S_I6_to_city" begin="75" end="6900" period="exp(0.010417)" departLane="best" departSpeed="max"/>
  <flow id="flow_minor_S_to_atlantic_at_I3" type="cross_street_mix" route="route_minor_S_I3_to_atlantic" begin="78" end="6900" period="exp(0.006250)" departLane="best" departSpeed="max"/>
  <flow id="flow_minor_N_to_city_at_I7" type="cross_street_mix" route="route_minor_N_I7_to_city" begin="78" end="6900" period="exp(0.007812)" departLane="best" departSpeed="max"/>
  <flow id="flow_main_outbound_turn_N_at_I5" type="urban_mix" route="route_main_outbound_turn_to_N_I5" begin="80" end="6900" period="exp(0.001818)" departLane="best" departSpeed="max"/>
  <flow id="flow_minor_N_to_atlantic_at_I5" type="cross_street_mix" route="route_minor_N_I5_to_atlantic" begin="82" end="6900" period="exp(0.007812)" departLane="best" departSpeed="max"/>
  <flow id="flow_minor_SN_I6" type="cross_street_mix" route="route_cross_SN_I6" begin="84" end="6900" period="exp(0.041667)" departLane="best" departSpeed="max"/>
  <flow id="flow_main_outbound_turn_S_at_I2" type="urban_mix" route="route_main_outbound_turn_to_S_I2" begin="85" end="6900" period="exp(0.001818)" departLane="best" departSpeed="max"/>
  <flow id="flow_minor_N_to_atlantic_at_I4" type="cross_street_mix" route="route_minor_N_I4_to_atlantic" begin="88" end="6900" period="exp(0.005000)" departLane="best" departSpeed="max"/>
  <flow id="flow_minor_S_to_city_at_I7" type="cross_street_mix" route="route_minor_S_I7_to_city" begin="88" end="6900" period="exp(0.006250)" departLane="best" departSpeed="max"/>
  <flow id="flow_main_inbound_turn_N_at_I3" type="urban_mix" route="route_main_inbound_turn_to_N_I3" begin="90" end="6900" period="exp(0.002667)" departLane="best" departSpeed="max"/>
  <flow id="flow_main_outbound_turn_N_at_I7" type="urban_mix" route="route_main_outbound_turn_to_N_I7" begin="90" end="6900" period="exp(0.001818)" departLane="best" departSpeed="max"/>
  <flow id="flow_minor_N_to_atlantic_at_I6" type="cross_street_mix" route="route_minor_N_I6_to_atlantic" begin="92" end="6900" period="exp(0.012500)" departLane="best" departSpeed="max"/>
  <flow id="flow_main_inbound_turn_S_at_I6" type="urban_mix" route="route_main_inbound_turn_to_S_I6" begin="95" end="6900" period="exp(0.005263)" departLane="best" departSpeed="max"/>
  <flow id="flow_minor_S_to_atlantic_at_I4" type="cross_street_mix" route="route_minor_S_I4_to_atlantic" begin="96" end="6900" period="exp(0.004167)" departLane="best" departSpeed="max"/>
  <flow id="flow_minor_SN_I7" type="cross_street_mix" route="route_cross_SN_I7" begin="98" end="6900" period="exp(0.025000)" departLane="best" departSpeed="max"/>
  <flow id="flow_main_outbound_turn_N_at_I4" type="urban_mix" route="route_main_outbound_turn_to_N_I4" begin="100" end="6900" period="exp(0.001370)" departLane="best" departSpeed="max"/>
  <flow id="flow_minor_S_to_atlantic_at_I5" type="cross_street_mix" route="route_minor_S_I5_to_atlantic" begin="102" end="6900" period="exp(0.006250)" departLane="best" departSpeed="max"/>
  <flow id="flow_main_inbound_turn_N_at_I5" type="urban_mix" route="route_main_inbound_turn_to_N_I5" begin="105" end="6900" period="exp(0.002667)" departLane="best" departSpeed="max"/>
  <flow id="flow_minor_N_to_atlantic_at_I7" type="cross_street_mix" route="route_minor_N_I7_to_atlantic" begin="105" end="6900" period="exp(0.007812)" departLane="best" departSpeed="max"/>
  <flow id="flow_main_inbound_turn_S_at_I3" type="urban_mix" route="route_main_inbound_turn_to_S_I3" begin="110" end="6900" period="exp(0.002667)" departLane="best" departSpeed="max"/>
  <flow id="flow_minor_S_to_atlantic_at_I6" type="cross_street_mix" route="route_minor_S_I6_to_atlantic" begin="110" end="6900" period="exp(0.010417)" departLane="best" departSpeed="max"/>
  <flow id="flow_main_inbound_turn_N_at_I7" type="urban_mix" route="route_main_inbound_turn_to_N_I7" begin="115" end="6900" period="exp(0.002667)" departLane="best" departSpeed="max"/>
  <flow id="flow_main_outbound_turn_S_at_I3" type="urban_mix" route="route_main_outbound_turn_to_S_I3" begin="120" end="6900" period="exp(0.001818)" departLane="best" departSpeed="max"/>